##This the primary INI file of the network
##The following parameters define multiple satellite constellations that are tested throughout
##the final year project by Aiden Valentine.
[General]
network = ManhattanConstellation
sim-time-limit = 1800s
record-eventlog=false
cmdenv-event-banners = false
*.**.app[0].**.vector-recording = true
*.**.tcp.**.vector-recording = true
*.**.app[0].**.scalar-recording = true
*.**.tcp.**.scalar-recording = true
*.**.app[0].**.bin-recording = true
*.**.tcp.**.bin-recording = true

**.scalar-recording=false
**.vector-recording=false
**.bin-recording=false

**.satellite[*].mobility.typename = "SatelliteMobility"
**.MCC[*].mobility.typename = "GroundStationMobility"

**.constraintAreaMinX = 0m
**.constraintAreaMaxX = 2160m

**.constraintAreaMinY = 0m
**.constraintAreaMaxY = 1080m

**.constraintAreaMinZ = 0m
**.constraintAreaMaxZ = 0m

## Routing settings
##parallel-simulation = false
##**.partition-id = 
*.*.ipv4.arp.typename = "GlobalArp"
*.*.ipv4.routingTable.netmaskRoutes = ""
#
*.MCC[*].mobility.initFromDisplayString = false
*.MCC[*].mobility.updateFromDisplayString  = false
#
#
#
*.configurator.config = xml("<config><interface hosts='**' address='10.x.x.x' netmask='255.x.x.x'/><autoroute metric='propagationDelay'/></config>") #<autoroute metric='errorRate'/>
*.configurator.addStaticRoutes = true
*.configurator.optimizeRoutes = false

*.satellite[*].numWlanInterfaces = 1
*.*.wlan[*].typename = "AckingWirelessInterface"
#
*.MCC[*].wlan[*].radio.typename = "UnitDiskRadio"
*.MCC[*].wlan[*].radio.transmitter.typename = "SatelliteUnitDiskTransmitter" #Use the new transmitter model
*.MCC[*].wlan[*].radio.receiver.typename = "UnitDiskReceiver"
*.MCC[*].wlan[*].radio.receiver.ignoreInterference = true
*.MCC[*].wlan[*].radio.transmitter.communicationRange = 100m
*.MCC[*].wlan[*].radio.displayCommunicationRange = false

*.satellite[*].wlan[*].radio.typename = "UnitDiskRadio"
*.satellite[*].wlan[*].radio.transmitter.typename = "SatelliteUnitDiskTransmitter" #Use the new transmitter model
*.satellite[*].wlan[*].radio.receiver.typename = "UnitDiskReceiver"
*.satellite[*].wlan[*].radio.receiver.ignoreInterference = true
*.satellite[*].wlan[*].radio.transmitter.communicationRange = 100m
*.satellite[*].wlan[*].radio.displayCommunicationRange = false

*.*.wlan[*].mac.fullDuplex = true
*.*.wlan[*].mac.queue.packetCapacity = -1
*.*.forwarding = true
*.radioMedium.rangeFilter = "communicationRange"
*.radioMedium.propagation.typename = "SatellitePropagation"

**.**.ignorePartialInterference = true
*.satellite[*].**.bitrate = 1Gbps ##Bitrate is not important for simple latency experiments with small packet sizes.
*.MCC[*].**.bitrate = 1Gbps
#
*.radioMedium.typename = "UnitDiskRadioMedium" #UnitDiskRadioMedium #ApskScalarRadioMedium
*.radioMedium.propagation.propagationSpeed = 299792458 mps # speed of light in a vacuum

*.visualizer.dataLinkVisualizer.packetFilter = "*"
*.visualizer.networkRouteVisualizer.displayRoutes = true
*.visualizer.networkRouteVisualizer.packetFilter = "TCPData"##"UDPData*"
*.visualizer.routingTableVisualizer.destinationFilter = "MCC[1]"#"satellite[125]"
*.visualizer.statisticVisualizer.sourceFilter = "**.app[*]"
*.visualizer.statisticVisualizer.signalName = "rtt"
*.visualizer.statisticVisualizer.unit = "s"


[Config Experiment1a]
description = "DC - Rio TCP Vegas - Single Flow 20ms Granularity"
# Network parameters
**.satellite[*].mobility.updateInterval = 20s   # Interval to update the satellite positions on the map
**.configurator.updateInterval = 20s
**.numOfSats =625#1600#1207         # Number of satellites used in simulation. ATTENTION! Must be smaller or equal to number of satellites in choosen TLEfile
**.numOfMCCs = 2

# Parameters for Norad
*.satellite[*].NoradModule.satIndex = parentIndex()
*.satellite[*].NoradModule.satName = "sat"
*.satellite[*].NoradModule.planes = 25
*.satellite[*].NoradModule.satPerPlane = 25
*.satellite[*].NoradModule.inclination = 90*0.0174533

*.MCC[0].mobility.latitude = 38.9072
*.MCC[0].mobility.longitude = -77.0369
*.MCC[0].cityName = "Washington DC"

*.MCC[1].mobility.latitude = -22.9128
*.MCC[1].mobility.longitude = -43.1729
*.MCC[1].cityName = "Rio"

*.configurator.enableInterSatelliteLinks = false

[Config Experiment1b]
description = "DC - Rio TCP Vegas - Single Flow 10ms Granularity"
extends = Experiment1a
**.satellite[*].mobility.updateInterval = ${10..160 step 25}s   # Interval to update the satellite positions on the map
**.configurator.updateInterval = ${10..160  step 25}s

[Config Experiment1c]
description = "DC - Frankfurt TCP Vegas - Single Flow 10ms Granularity"
extends = Experiment1a
*.MCC[0].mobility.latitude = 38.9072
*.MCC[0].mobility.longitude = -77.0369
*.MCC[0].cityName = "Washington DC"

*.MCC[1].mobility.latitude = 50.1109
*.MCC[1].mobility.longitude = 8.6821
*.MCC[1].cityName = "Frankfurt"

[Config Experiment1d]
description = "London - New York TCP Vegas - Single Flow 10ms Granularity"
extends = Experiment1a
*.MCC[0].mobility.latitude = 40.7128
*.MCC[0].mobility.longitude = -74.0060
*.MCC[0].cityName = "New York"

*.MCC[1].mobility.latitude = 47.6
*.MCC[1].mobility.longitude = -122.33
*.MCC[1].cityName = "Seattle"

[Config Experiment1e]
extends = Experiment1a
**.numOfMCCs = 12
*.MCC[0].mobility.latitude = 51.5074
*.MCC[0].mobility.longitude = -0.1278
*.MCC[0].cityName = "London"

*.MCC[1].mobility.latitude = 40.7128
*.MCC[1].mobility.longitude = -74.0060
*.MCC[1].cityName = "New York"

*.MCC[2].mobility.latitude = 43.973842
*.MCC[2].mobility.longitude = -65.821154
*.MCC[2].cityName = "Yarmouth"

*.MCC[3].mobility.latitude = 46.160049
*.MCC[3].mobility.longitude = -60.165039
*.MCC[3].cityName = "Sydney"

*.MCC[4].mobility.latitude = 47.867722
*.MCC[4].mobility.longitude = -58.109254
*.MCC[4].cityName = "Newfoundland"

*.MCC[5].mobility.latitude = 48.802522
*.MCC[5].mobility.longitude = -54.602327
*.MCC[5].cityName = "Gander"

*.MCC[6].mobility.latitude = 51.209636
*.MCC[6].mobility.longitude = -56.152411
*.MCC[6].cityName = "Main Brook"

*.MCC[7].mobility.latitude = 50.244394
*.MCC[7].mobility.longitude = -62.243852
*.MCC[7].cityName = "MCC"

*.MCC[8].mobility.latitude = 48.884947
*.MCC[8].mobility.longitude = -64.590944
*.MCC[8].cityName = "Gaspe"

*.MCC[9].mobility.latitude = 50.334241
*.MCC[9].mobility.longitude = -39.797441
*.MCC[9].cityName = "Ship 1"

*.MCC[10].mobility.latitude = 51.113178
*.MCC[10].mobility.longitude = -22.559631
*.MCC[10].cityName = "Ship 2"

*.MCC[11].mobility.latitude = 51.899546
*.MCC[11].mobility.longitude = -9.671495
*.MCC[11].cityName = "Killarney"

*.configurator.enableInterSatelliteLinks = false

[Config Experiment1f]
extends = Experiment1a
**.numOfMCCs = 10
*.MCC[0].mobility.latitude = 46.0388
*.MCC[0].mobility.longitude = -122.8082
*.MCC[0].cityName = "Kalama"

#Conrad MT Gateway
*.MCC[1].mobility.latitude = 48.2032
*.MCC[1].mobility.longitude = -111.9452
*.MCC[1].cityName = "Conrad"

#Slope County Gateway
*.MCC[2].mobility.latitude = 46.4103
*.MCC[2].mobility.longitude = -103.1141
*.MCC[2].cityName = "Slope County"

#Cass County ND Gateway
*.MCC[3].mobility.latitude = 46.8758
*.MCC[3].mobility.longitude = -96.9281
*.MCC[3].cityName = "Cass County"

#Marcell MN Gateway
*.MCC[4].mobility.latitude = 49#47.5947
*.MCC[4].mobility.longitude = -88.6990#-93.6990
*.MCC[4].cityName = "Marcell"

#Lockport NY Gateway
*.MCC[5].mobility.latitude = 43.1772
*.MCC[5].mobility.longitude = -78.8199
*.MCC[5].cityName = "Lockport"

#Litchfield CT Gateway
*.MCC[6].mobility.latitude = 41.5343
*.MCC[6].mobility.longitude = -73.3661
*.MCC[6].cityName = "Litchfield"

#Chicago Gateway
*.MCC[7].mobility.latitude = 41.866288
*.MCC[7].mobility.longitude = -87.645160
*.MCC[7].cityName = "Chicago"

#Columbus Gateway
*.MCC[8].mobility.latitude = 40.004055
*.MCC[8].mobility.longitude = -82.982645
*.MCC[8].cityName = "Columbus"

#Minneapolis Gateway
*.MCC[9].mobility.latitude = 45.005205
*.MCC[9].mobility.longitude = -93.294549
*.MCC[9].cityName = "Minneapolis"
*.configurator.enableInterSatelliteLinks = false